data_image0
_chemical_formula_structural       Bi3In5Sn6Pb18Cu8
_chemical_formula_sum              "Bi3 In5 Sn6 Pb18 Cu8"
_cell_length_a       8.6421
_cell_length_b       14.1125
_cell_length_c       14.1663
_cell_angle_alpha    90
_cell_angle_beta     90
_cell_angle_gamma    90

_space_group_name_H-M_alt    "P 1"
_space_group_IT_number       1

loop_
  _space_group_symop_operation_xyz
  'x, y, z'

loop_
  _atom_site_type_symbol
  _atom_site_label
  _atom_site_symmetry_multiplicity
  _atom_site_fract_x
  _atom_site_fract_y
  _atom_site_fract_z
  _atom_site_occupancy
  Bi  Bi1       1.0  0.33333  0.00000  0.07189  1.0000
  Bi  Bi2       1.0  0.00000  0.25000  0.21568  1.0000
  Bi  Bi3       1.0  0.66667  0.00000  0.35947  1.0000
  In  In1       1.0  0.33333  0.25000  0.50326  1.0000
  In  In2       1.0  0.00000  0.00000  0.64705  1.0000
  In  In3       1.0  0.33333  0.25000  0.07189  1.0000
  In  In4       1.0  0.00000  0.00000  0.21568  1.0000
  In  In5       1.0  0.66667  0.25000  0.35947  1.0000
  Sn  Sn1       1.0  0.33333  0.00000  0.50326  1.0000
  Sn  Sn2       1.0  0.00000  0.25000  0.64705  1.0000
  Sn  Sn3       1.0  0.00000  0.37500  0.00000  1.0000
  Sn  Sn4       1.0  0.66667  0.12500  0.14379  1.0000
  Sn  Sn5       1.0  0.33333  0.37500  0.28758  1.0000
  Sn  Sn6       1.0  0.00000  0.12500  0.43137  1.0000
  Pb  Pb1       1.0  0.66667  0.37500  0.57516  1.0000
  Pb  Pb2       1.0  0.00000  0.12500  0.00000  1.0000
  Pb  Pb3       1.0  0.66667  0.37500  0.14379  1.0000
  Pb  Pb4       1.0  0.33333  0.12500  0.28758  1.0000
  Pb  Pb5       1.0  0.00000  0.37500  0.43137  1.0000
  Pb  Pb6       1.0  0.66667  0.12500  0.57516  1.0000
  Pb  Pb7       1.0  0.33333  0.50000  0.07189  1.0000
  Pb  Pb8       1.0  0.00000  0.75000  0.21568  1.0000
  Pb  Pb9       1.0  0.66667  0.50000  0.35947  1.0000
  Pb  Pb10      1.0  0.33333  0.75000  0.50326  1.0000
  Pb  Pb11      1.0  0.00000  0.50000  0.64705  1.0000
  Pb  Pb12      1.0  0.33333  0.75000  0.07189  1.0000
  Pb  Pb13      1.0  0.00000  0.50000  0.21568  1.0000
  Pb  Pb14      1.0  0.66667  0.75000  0.35947  1.0000
  Pb  Pb15      1.0  0.33333  0.50000  0.50326  1.0000
  Pb  Pb16      1.0  0.00000  0.75000  0.64705  1.0000
  Pb  Pb17      1.0  0.00000  0.87500  0.00000  1.0000
  Pb  Pb18      1.0  0.66667  0.62500  0.14379  1.0000
  Cu  Cu1       1.0  0.33333  0.87500  0.28758  1.0000
  Cu  Cu2       1.0  0.00000  0.62500  0.43137  1.0000
  Cu  Cu3       1.0  0.66667  0.87500  0.57516  1.0000
  Cu  Cu4       1.0  0.00000  0.62500  0.00000  1.0000
  Cu  Cu5       1.0  0.66667  0.87500  0.14379  1.0000
  Cu  Cu6       1.0  0.33333  0.62500  0.28758  1.0000
  Cu  Cu7       1.0  0.00000  0.87500  0.43137  1.0000
  Cu  Cu8       1.0  0.66667  0.62500  0.57516  1.0000
